Circuit: * C:\Users\Stephen Johnston\Desktop\School Stuff\Quarter 8\ECE411\amplifier_circuit_input.asc

Direct Newton iteration for .op point succeeded.

Date: Tue Dec 04 20:36:30 2018
Total elapsed time: 0.398 seconds.

tnom = 27
temp = 27
method = modified trap
totiter = 2096
traniter = 2090
tranpoints = 1046
accept = 1046
rejected = 0
matrix size = 17
fillins = 3
solver = Normal
Matrix Compiler1: 1.23 KB object code size  1.2/0.7/[0.6]
Matrix Compiler2: 1.43 KB object code size  0.7/0.8/[0.6]

