Circuit: * C:\Users\Stephen Johnston\Desktop\School Stuff\Quarter 8\ECE411\amplifier_circuit_output.asc

Direct Newton iteration for .op point succeeded.

Date: Sun Dec 02 21:34:25 2018
Total elapsed time: 0.576 seconds.

tnom = 27
temp = 27
method = modified trap
totiter = 15460
traniter = 15454
tranpoints = 5465
accept = 3517
rejected = 1948
matrix size = 10
fillins = 0
solver = Normal
Matrix Compiler1:      32 opcodes  0.2/[0.1]/0.3
Matrix Compiler2: 762 bytes object code size  0.2/0.2/[0.1]

